 8
 s=0.9
        C          0.0000000000       -0.2459527575       -0.5752052565
        C          0.0000000000        0.1386936710        0.8455779864
        H          0.0000000000        0.6420805254       -1.2287102415
        H          0.8834677962       -0.8179577446       -0.8454847358
        H         -0.8834677962       -0.8179577446       -0.8454847358
        H         -0.9211618611        0.3629476277        1.3567235634
        H          0.9211618611        0.3629476277        1.3567235634
        H          0.0000000000        1.5460801610       -3.0156326620


