 8
 r=2.1
C      0.0000000000  -0.2564747305  -0.5710794848
C      0.0000000000   0.1486694860   0.8490248287
H      0.0000000000   0.6256903607  -1.2438383127
H      0.8837074171  -0.8349207440  -0.8305469744
H     -0.8837074171  -0.8349207440  -0.8305469744
H     -0.9221924875   0.3807520555   1.3568669241
H      0.9221924875   0.3807520555   1.3568669241
H      0.0000000000   1.5672956974  -3.1209050110


